%nprocshared=4
%mem=3GB
#p b3lyp empiricaldispersion=gd3bj midix scrf=(pcm,solvent=1,4-dioxane) opt=modredundant freq=noraman

Diels Alder

0 1
 C                 -5.77356166    2.10935393   -1.51666154
 H                 -5.51951500    3.09047684   -1.85982060
 C                 -4.84798664    1.34611974   -0.88630331
 H                 -5.10203330    0.36499684   -0.54314425
 C                 -3.42567788    1.89276783   -0.66311358
 H                 -2.69488886    1.29015524   -0.16541339
 C                 -3.09644439    3.13443273   -1.09490130
 H                 -3.82294381    3.74169512   -1.59322948
 H                 -2.10660082    3.50881351   -0.93694956
 N                 -7.13122002    1.58755348   -1.72970628
 H                 -7.08559740    0.75550467   -2.28252936
 C                 -7.93988309    2.59661790   -2.42881503
 O                 -9.11095756    2.32386528   -2.79997693
 O                 -7.39390133    3.89261914   -2.68801517
 H                 -8.07691543    4.46140047   -3.05075412
 C                 -4.03508852    2.78454932   -3.63891028
 H                 -4.47503848    1.90157601   -3.22454069
 H                 -4.53818104    3.31450576   -4.42053941
 C                 -2.84287255    3.23396380   -3.17715846
 H                 -2.40292260    4.11693712   -3.59152806
 C                 -2.11879547    2.47122276   -2.05219692
 O                 -3.04303383    1.35530184   -1.78430444
 H                 -2.82022095    0.67674122   -1.07620624
 O                 -1.01148290    2.88283280   -1.61859962



